
     RDKit          3D

 31 34  0  0  0  0  0  0  0  0999 V2000
    6.0010    2.8040   24.5460 O   0  0  0  0  0  0  0  0  0  0  0  0
    4.7220    2.1660   24.5890 S   0  0  1  0  0  0  0  0  0  0  0  0
    4.6590    0.7490   24.7730 O   0  0  0  0  0  0  0  0  0  0  0  0
    3.7700    2.9280   25.8490 C   0  0  0  0  0  0  0  0  0  0  0  0
    3.9770    2.5060   23.1790 N   0  0  0  0  0  0  0  0  0  0  0  0
    4.3750    2.0710   21.8700 C   0  0  0  0  0  0  0  0  0  0  0  0
    3.6230    2.4730   20.7640 C   0  0  0  0  0  0  0  0  0  0  0  0
    3.9860    2.1190   19.4990 C   0  0  0  0  0  0  0  0  0  0  0  0
    5.4950    1.2860   21.6850 C   0  0  0  0  0  0  0  0  0  0  0  0
    5.9010    0.8830   20.3860 C   0  0  0  0  0  0  0  0  0  0  0  0
    5.1320    1.3180   19.2710 C   0  0  0  0  0  0  0  0  0  0  0  0
    5.5660    0.9360   17.9760 C   0  0  0  0  0  0  0  0  0  0  0  0
    6.6450    0.2010   17.7370 N   0  0  0  0  0  0  0  0  0  0  0  0
    7.3630   -0.2060   18.7950 C   0  0  0  0  0  0  0  0  0  0  0  0
    7.0630    0.0850   20.1270 C   0  0  0  0  0  0  0  0  0  0  0  0
    7.8610   -0.3290   21.2190 N   0  0  0  0  0  0  0  0  0  0  0  0
    8.9720    0.2770   21.7040 C   0  0  0  0  0  0  0  0  0  0  0  0
    9.4490    1.3060   21.2410 O   0  0  0  0  0  0  0  0  0  0  0  0
    9.6150   -0.4190   22.9480 C   0  0  1  0  0  0  0  0  0  0  0  0
    9.3380   -1.8030   22.7270 O   0  0  0  0  0  0  0  0  0  0  0  0
    9.7990   -2.7250   23.7260 C   0  0  0  0  0  0  0  0  0  0  0  0
   11.1100   -0.1800   22.9600 C   0  0  0  0  0  0  0  0  0  0  0  0
   11.9330   -0.8190   22.0410 C   0  0  0  0  0  0  0  0  0  0  0  0
   13.2770   -0.5040   21.9980 C   0  0  0  0  0  0  0  0  0  0  0  0
   14.2960   -1.3360   20.8550 Cl  0  0  0  0  0  0  0  0  0  0  0  0
   13.8310    0.4430   22.8360 C   0  0  0  0  0  0  0  0  0  0  0  0
   13.0280    1.0750   23.7690 C   0  0  0  0  0  0  0  0  0  0  0  0
   11.6790    0.7580   23.8300 C   0  0  0  0  0  0  0  0  0  0  0  0
   10.9630    1.3790   24.8260 O   0  0  0  0  0  0  0  0  0  0  0  0
    9.5370    1.4780   24.5860 C   0  0  0  0  0  0  0  0  0  0  0  0
    8.9290    0.1430   24.2000 C   0  0  0  0  0  0  0  0  0  0  0  0
  2  1  2  0
  3  2  2  0
  2  4  1  1
  5  2  1  0
  6  5  1  0
  7  6  2  0
  8  7  1  0
  9  6  1  0
 10  9  2  0
 11  8  2  0
 11 10  1  0
 12 11  1  0
 13 12  2  0
 14 13  1  0
 15 14  2  0
 15 10  1  0
 16 15  1  0
 17 16  1  0
 18 17  2  0
 19 17  1  0
 19 20  1  6
 21 20  1  0
 22 19  1  0
 23 22  2  0
 24 23  1  0
 25 24  1  0
 26 24  2  0
 27 26  1  0
 28 27  2  0
 28 22  1  0
 29 28  1  0
 30 29  1  0
 31 30  1  0
 31 19  1  0
M  END
