
     RDKit          3D

 24 27  0  0  0  0  0  0  0  0999 V2000
  -19.4930    4.9060   29.2970 O   0  0  0  0  0  0  0  0  0  0  0  0
  -20.3350    4.8640   28.4020 C   0  0  0  0  0  0  0  0  0  0  0  0
  -21.8360    4.9080   28.6920 C   0  0  2  0  0  0  0  0  0  0  0  0
  -22.3400    6.3640   28.6270 C   0  0  0  0  0  0  0  0  0  0  0  0
  -22.0180    7.1030   29.9100 C   0  0  0  0  0  0  0  0  0  0  0  0
  -22.5770    6.3830   31.0420 N   0  0  0  0  0  0  0  0  0  0  0  0
  -22.0890    4.2410   30.0300 C   0  0  0  0  0  0  0  0  0  0  0  0
  -22.4100    5.0200   31.1550 C   0  0  0  0  0  0  0  0  0  0  0  0
  -22.5810    4.4050   32.3990 C   0  0  0  0  0  0  0  0  0  0  0  0
  -22.4410    3.0360   32.5310 C   0  0  0  0  0  0  0  0  0  0  0  0
  -21.9790    2.8600   30.1750 C   0  0  0  0  0  0  0  0  0  0  0  0
  -22.1640    2.2800   31.4140 C   0  0  0  0  0  0  0  0  0  0  0  0
  -22.0570    0.5470   31.5610 Cl  0  0  0  0  0  0  0  0  0  0  0  0
  -20.0210    4.8200   27.0890 N   0  0  0  0  0  0  0  0  0  0  0  0
  -18.7400    4.9480   26.5070 C   0  0  0  0  0  0  0  0  0  0  0  0
  -18.3010    6.2480   26.0950 C   0  0  0  0  0  0  0  0  0  0  0  0
  -19.1170    7.4100   26.1490 C   0  0  0  0  0  0  0  0  0  0  0  0
  -18.6280    8.6280   25.7760 C   0  0  0  0  0  0  0  0  0  0  0  0
  -17.3200    8.7610   25.3270 C   0  0  0  0  0  0  0  0  0  0  0  0
  -16.5010    7.6690   25.2330 C   0  0  0  0  0  0  0  0  0  0  0  0
  -16.9690    6.3850   25.6090 C   0  0  0  0  0  0  0  0  0  0  0  0
  -16.1690    5.2160   25.5430 C   0  0  0  0  0  0  0  0  0  0  0  0
  -16.5840    4.0080   25.9130 N   0  0  0  0  0  0  0  0  0  0  0  0
  -17.8370    3.8970   26.3760 C   0  0  0  0  0  0  0  0  0  0  0  0
  2  1  2  0
  3  2  1  1
  4  3  1  0
  5  4  1  0
  6  5  1  0
  7  3  1  0
  8  7  2  0
  8  6  1  0
  9  8  1  0
 10  9  2  0
 11  7  1  0
 12 11  2  0
 12 10  1  0
 13 12  1  0
 14  2  1  0
 15 14  1  0
 16 15  1  0
 17 16  2  0
 18 17  1  0
 19 18  2  0
 20 19  1  0
 21 20  2  0
 21 16  1  0
 22 21  1  0
 23 22  2  0
 24 23  1  0
 24 15  2  0
M  END
