
     RDKit          3D

 30 33  0  0  0  0  0  0  0  0999 V2000
  -18.7460    4.7490   29.4360 O   0  0  0  0  0  0  0  0  0  0  0  0
  -19.7640    4.8530   28.7030 C   0  0  0  0  0  0  0  0  0  0  0  0
  -21.0060    5.1810   29.2490 N   0  0  0  0  0  0  0  0  0  0  0  0
  -22.1950    5.2940   28.4400 C   0  0  0  0  0  0  0  0  0  0  0  0
  -22.6480    6.5330   28.0230 C   0  0  0  0  0  0  0  0  0  0  0  0
  -23.8140    6.7370   27.2370 C   0  0  0  0  0  0  0  0  0  0  0  0
  -24.5950    5.6560   26.7820 C   0  0  2  0  0  0  0  0  0  0  0  0
  -25.7950    5.7980   26.0260 N   0  0  0  0  0  0  0  0  0  0  0  0
  -26.2570    6.8680   25.2780 C   0  0  0  0  0  0  0  0  0  0  0  0
  -27.6030    6.9070   24.5550 C   0  0  0  0  0  0  0  0  0  0  0  0
  -28.8460    7.0210   25.4350 C   0  0  0  0  0  0  0  0  0  0  0  0
  -25.5720    7.8990   25.1760 O   0  0  0  0  0  0  0  0  0  0  0  0
  -24.1450    4.4120   27.1930 C   0  0  0  0  0  0  0  0  0  0  0  0
  -22.9840    4.2280   27.9880 C   0  0  0  0  0  0  0  0  0  0  0  0
  -21.2300    5.3190   30.6250 C   0  0  0  0  0  0  0  0  0  0  0  0
  -22.3920    4.5070   31.0900 C   0  0  2  0  0  0  0  0  0  0  0  0
  -22.2250    3.2220   31.3330 C   0  0  0  0  0  0  0  0  0  0  0  0
  -23.6660    2.4430   31.7900 S   0  0  0  0  0  0  0  0  0  0  0  0
  -24.5830    3.8390   31.6210 C   0  0  0  0  0  0  0  0  0  0  0  0
  -23.7770    4.8510   31.2390 C   0  0  0  0  0  0  0  0  0  0  0  0
  -19.5220    4.5870   27.1880 C   0  0  0  0  0  0  0  0  0  0  0  0
  -18.2640    4.6610   26.6080 N   0  0  0  0  0  0  0  0  0  0  0  0
  -17.4770    3.5390   26.4250 N   0  0  0  0  0  0  0  0  0  0  0  0
  -16.3700    3.8500   25.9090 N   0  0  0  0  0  0  0  0  0  0  0  0
  -16.3090    5.2800   25.6950 C   0  0  0  0  0  0  0  0  0  0  0  0
  -17.5300    5.7820   26.1520 C   0  0  0  0  0  0  0  0  0  0  0  0
  -17.7920    7.1660   26.0940 C   0  0  0  0  0  0  0  0  0  0  0  0
  -16.8400    8.0240   25.5620 C   0  0  0  0  0  0  0  0  0  0  0  0
  -15.6030    7.5050   25.0940 C   0  0  0  0  0  0  0  0  0  0  0  0
  -15.3410    6.1300   25.1650 C   0  0  0  0  0  0  0  0  0  0  0  0
  2  1  1  0
  3  2  1  0
  4  3  1  0
  5  4  1  0
  6  5  1  0
  7  6  1  0
  7  8  1  1
  9  8  1  0
 10  9  1  0
 11 10  1  0
 12  9  1  0
 13  7  1  0
 14 13  1  0
 14  4  1  0
 15  3  1  0
 16 15  1  6
 17 16  1  0
 18 17  1  0
 19 18  1  0
 20 19  1  0
 20 16  1  0
 21  2  1  0
 22 21  1  0
 23 22  1  0
 24 23  1  0
 25 24  1  0
 26 22  1  0
 26 25  1  0
 27 26  1  0
 28 27  1  0
 29 28  1  0
 30 25  1  0
 30 29  1  0
M  END
