
     RDKit          3D

 49 51  0  0  0  0  0  0  0  0999 V2000
  -17.7600   11.6460   36.8480 C   0  0  0  0  0  0  0  0  0  0  0  0
  -18.5900   12.1270   37.8450 C   0  0  0  0  0  0  0  0  0  0  0  0
  -18.3680   13.4240   38.5830 C   0  0  0  0  0  0  0  0  0  0  0  0
  -19.6480   11.2830   38.0600 O   0  0  0  0  0  0  0  0  0  0  0  0
  -19.5050   10.1590   37.1680 N   0  0  0  0  0  0  0  0  0  0  0  0
  -18.3510   10.4240   36.4630 C   0  0  0  0  0  0  0  0  0  0  0  0
  -17.8610    9.5080   35.4150 C   0  0  0  0  0  0  0  0  0  0  0  0
  -17.2890    9.9490   34.4240 O   0  0  0  0  0  0  0  0  0  0  0  0
  -18.1240    8.2300   35.6440 N   0  0  0  0  0  0  0  0  0  0  0  0
  -17.7650    7.2290   34.6730 C   0  0  2  0  0  0  0  0  0  0  0  0
  -18.7560    7.4050   33.5530 C   0  0  0  0  0  0  0  0  0  0  0  0
  -19.8690    7.8130   33.8200 O   0  0  0  0  0  0  0  0  0  0  0  0
  -17.9180    5.8370   35.2650 C   0  0  0  0  0  0  0  0  0  0  0  0
  -18.3560    7.1250   32.3070 N   0  0  0  0  0  0  0  0  0  0  0  0
  -19.2200    7.2370   31.1420 C   0  0  2  0  0  0  0  0  0  0  0  0
  -19.4100    5.9030   30.4690 C   0  0  0  0  0  0  0  0  0  0  0  0
  -18.4860    5.1280   30.2060 O   0  0  0  0  0  0  0  0  0  0  0  0
  -18.5570    8.2810   30.2300 C   0  0  1  0  0  0  0  0  0  0  0  0
  -19.1700    8.3500   28.8120 C   0  0  0  0  0  0  0  0  0  0  0  0
  -18.5320    9.6580   30.9280 C   0  0  0  0  0  0  0  0  0  0  0  0
  -20.6720    5.6330   30.1960 N   0  0  0  0  0  0  0  0  0  0  0  0
  -21.0880    4.4240   29.4950 C   0  0  2  0  0  0  0  0  0  0  0  0
  -20.8140    4.6580   28.0420 C   0  0  0  0  0  0  0  0  0  0  0  0
  -21.2780    5.6560   27.4980 O   0  0  0  0  0  0  0  0  0  0  0  0
  -22.5990    4.3580   29.7130 C   0  0  0  0  0  0  0  0  0  0  0  0
  -23.1250    3.0750   30.3530 C   0  0  1  0  0  0  0  0  0  0  0  0
  -22.1150    2.2950   31.1790 C   0  0  0  0  0  0  0  0  0  0  0  0
  -24.3400    3.4200   31.1940 C   0  0  0  0  0  0  0  0  0  0  0  0
  -19.8350    4.0740   25.9460 C   0  0  2  0  0  0  0  0  0  0  0  0
  -20.6980    3.1790   25.0670 C   0  0  0  0  0  0  0  0  0  0  0  0
  -22.1830    3.4590   25.1970 C   0  0  0  0  0  0  0  0  0  0  0  0
  -22.6580    4.0440   23.9110 C   0  0  0  0  0  0  0  0  0  0  0  0
  -18.3440    3.8940   25.6020 C   0  0  0  0  0  0  0  0  0  0  0  0
  -17.5330    5.0830   26.2390 C   0  0  2  0  0  0  0  0  0  0  0  0
  -17.9870    6.4540   25.6540 C   0  0  0  0  0  0  0  0  0  0  0  0
  -16.6240    7.3150   25.4630 C   0  0  0  0  0  0  0  0  0  0  0  0
  -15.5980    6.2750   25.6600 N   0  0  0  0  0  0  0  0  0  0  0  0
  -16.0250    5.0350   26.0460 C   0  0  0  0  0  0  0  0  0  0  0  0
  -15.3160    4.0150   26.2380 O   0  0  0  0  0  0  0  0  0  0  0  0
  -20.0680    3.7780   27.3710 N   0  0  0  0  0  0  0  0  0  0  0  0
  -22.9910    3.2920   23.0110 O   0  0  0  0  0  0  0  0  0  0  0  0
  -23.8400    6.2830   24.1800 C   0  0  0  0  0  0  0  0  0  0  0  0
  -22.7060    5.4970   23.7530 O   0  0  0  0  0  0  0  0  0  0  0  0
  -22.7570    7.7790   25.9610 C   0  0  0  0  0  0  0  0  0  0  0  0
  -22.3850    9.0290   26.4700 C   0  0  0  0  0  0  0  0  0  0  0  0
  -22.6810   10.1850   25.7420 C   0  0  0  0  0  0  0  0  0  0  0  0
  -23.3550   10.0850   24.5120 C   0  0  0  0  0  0  0  0  0  0  0  0
  -23.7310    8.8350   24.0010 C   0  0  0  0  0  0  0  0  0  0  0  0
  -23.4280    7.6630   24.7230 C   0  0  0  0  0  0  0  0  0  0  0  0
  2  1  1  0
  3  2  1  0
  4  2  1  0
  5  4  1  0
  6  5  1  0
  6  1  1  0
  7  6  1  0
  8  7  1  0
  9  7  1  0
 10  9  1  0
 11 10  1  0
 12 11  1  0
 10 13  1  1
 14 11  1  0
 15 14  1  1
 16 15  1  0
 17 16  1  0
 18 15  1  0
 18 19  1  6
 20 18  1  0
 21 16  1  0
 22 21  1  0
 23 22  1  0
 24 23  1  0
 22 25  1  6
 26 25  1  0
 26 27  1  1
 28 26  1  0
 29 30  1  6
 31 30  1  0
 32 31  1  0
 33 29  1  0
 34 33  1  6
 35 34  1  0
 36 35  1  0
 37 36  1  0
 38 34  1  0
 38 37  1  0
 39 38  1  0
 40 29  1  0
 40 23  1  0
 41 32  1  0
 43 32  1  0
 43 42  1  0
 45 44  1  0
 46 45  1  0
 47 46  1  0
 48 47  1  0
 49 48  1  0
 49 44  1  0
 49 42  1  0
M  END
