
     RDKit          3D

 30 33  0  0  0  0  0  0  0  0999 V2000
  -18.7950    5.2330   29.0450 O   0  0  0  0  0  0  0  0  0  0  0  0
  -19.8580    5.3660   28.3840 C   0  0  0  0  0  0  0  0  0  0  0  0
  -21.0650    5.5990   29.0070 N   0  0  0  0  0  0  0  0  0  0  0  0
  -22.2340    5.7620   28.1930 C   0  0  2  0  0  0  0  0  0  0  0  0
  -22.9700    4.7170   27.6080 C   0  0  0  0  0  0  0  0  0  0  0  0
  -24.0980    4.9230   26.7410 C   0  0  0  0  0  0  0  0  0  0  0  0
  -24.5450    6.2300   26.3910 C   0  0  0  0  0  0  0  0  0  0  0  0
  -25.6930    6.4860   25.4860 N   0  0  0  0  0  0  0  0  0  0  0  0
  -26.0760    7.7220   24.8800 C   0  0  0  0  0  0  0  0  0  0  0  0
  -27.2660    7.9650   23.9050 C   0  0  0  0  0  0  0  0  0  0  0  0
  -26.9850    8.6530   22.5600 C   0  0  0  0  0  0  0  0  0  0  0  0
  -25.4310    8.7510   25.1490 O   0  0  0  0  0  0  0  0  0  0  0  0
  -23.7710    7.2610   26.9490 C   0  0  0  0  0  0  0  0  0  0  0  0
  -22.6630    7.0420   27.8030 C   0  0  0  0  0  0  0  0  0  0  0  0
  -21.2150    5.6010   30.4900 C   0  0  0  0  0  0  0  0  0  0  0  0
  -22.0830    4.4350   30.9530 C   0  0  1  0  0  0  0  0  0  0  0  0
  -23.4160    4.5320   30.9980 C   0  0  0  0  0  0  0  0  0  0  0  0
  -24.1910    3.0980   31.4740 S   0  0  0  0  0  0  0  0  0  0  0  0
  -22.7130    2.2760   31.5830 C   0  0  0  0  0  0  0  0  0  0  0  0
  -21.6930    3.1150   31.2680 C   0  0  0  0  0  0  0  0  0  0  0  0
  -19.6700    5.2580   26.8310 C   0  0  0  0  0  0  0  0  0  0  0  0
  -18.3700    5.2160   26.3000 N   0  0  0  0  0  0  0  0  0  0  0  0
  -17.6250    4.0370   26.2050 N   0  0  0  0  0  0  0  0  0  0  0  0
  -16.4920    4.2700   25.7170 N   0  0  0  0  0  0  0  0  0  0  0  0
  -16.3810    5.7060   25.4670 C   0  0  0  0  0  0  0  0  0  0  0  0
  -17.5890    6.2650   25.8590 C   0  0  0  0  0  0  0  0  0  0  0  0
  -17.8200    7.6530   25.7480 C   0  0  0  0  0  0  0  0  0  0  0  0
  -16.8130    8.4600   25.2250 C   0  0  0  0  0  0  0  0  0  0  0  0
  -15.5810    7.8890   24.8410 C   0  0  0  0  0  0  0  0  0  0  0  0
  -15.3680    6.5120   24.9510 C   0  0  0  0  0  0  0  0  0  0  0  0
  2  1  1  0
  3  2  1  0
  4  3  1  6
  5  4  1  0
  6  5  1  0
  7  6  1  0
  8  7  1  0
  9  8  1  0
 10  9  1  0
 11 10  1  0
 12  9  1  0
 13  7  1  0
 14 13  1  0
 14  4  1  0
 15  3  1  0
 16 15  1  6
 17 16  1  0
 18 17  1  0
 19 18  1  0
 20 19  1  0
 20 16  1  0
 21  2  1  0
 22 21  1  0
 23 22  1  0
 24 23  1  0
 25 24  1  0
 26 22  1  0
 26 25  1  0
 27 26  1  0
 28 27  1  0
 29 28  1  0
 30 25  1  0
 30 29  1  0
M  END
