
     RDKit          3D

 21 23  0  0  0  0  0  0  0  0999 V2000
    8.9190    0.8320   21.2880 O   0  0  0  0  0  0  0  0  0  0  0  0
    8.3770   -0.2350   21.5890 C   0  0  0  0  0  0  0  0  0  0  0  0
    8.9590   -1.1580   22.6430 C   0  0  0  0  0  0  0  0  0  0  0  0
   10.3740   -0.7910   23.0320 C   0  0  0  0  0  0  0  0  0  0  0  0
   10.6220    0.1160   24.0550 C   0  0  0  0  0  0  0  0  0  0  0  0
   11.9120    0.5520   24.3210 C   0  0  0  0  0  0  0  0  0  0  0  0
   12.9760    0.0930   23.5610 C   0  0  0  0  0  0  0  0  0  0  0  0
   11.4500   -1.2900   22.3030 C   0  0  0  0  0  0  0  0  0  0  0  0
   12.7260   -0.8360   22.5680 C   0  0  0  0  0  0  0  0  0  0  0  0
   14.0550   -1.4510   21.6190 Cl  0  0  0  0  0  0  0  0  0  0  0  0
    7.2340   -0.6880   21.0190 N   0  0  0  0  0  0  0  0  0  0  0  0
    6.4860   -0.1050   19.9740 C   0  0  0  0  0  0  0  0  0  0  0  0
    5.3610    0.7140   20.3110 C   0  0  0  0  0  0  0  0  0  0  0  0
    4.8790    0.8870   21.6360 C   0  0  0  0  0  0  0  0  0  0  0  0
    3.8250    1.7170   21.8970 C   0  0  0  0  0  0  0  0  0  0  0  0
    3.2010    2.4150   20.8710 C   0  0  0  0  0  0  0  0  0  0  0  0
    3.6190    2.2740   19.5770 C   0  0  0  0  0  0  0  0  0  0  0  0
    4.7020    1.4140   19.2590 C   0  0  0  0  0  0  0  0  0  0  0  0
    5.1790    1.2210   17.9390 C   0  0  0  0  0  0  0  0  0  0  0  0
    6.2080    0.4450   17.6220 N   0  0  0  0  0  0  0  0  0  0  0  0
    6.8350   -0.1910   18.6230 C   0  0  0  0  0  0  0  0  0  0  0  0
  2  1  2  0
  3  2  1  0
  4  3  1  0
  5  4  2  0
  6  5  1  0
  7  6  2  0
  8  4  1  0
  9  8  2  0
  9  7  1  0
 10  9  1  0
 11  2  1  0
 12 11  1  0
 13 12  1  0
 14 13  2  0
 15 14  1  0
 16 15  2  0
 17 16  1  0
 18 17  2  0
 18 13  1  0
 19 18  1  0
 20 19  2  0
 21 20  1  0
 21 12  2  0
M  END
