
     RDKit          3D

 49 51  0  0  0  0  0  0  0  0999 V2000
  -18.7740   11.5290   37.4150 C   0  0  0  0  0  0  0  0  0  0  0  0
  -19.8910   11.8030   38.2350 C   0  0  0  0  0  0  0  0  0  0  0  0
  -20.2120   13.0080   39.0830 C   0  0  0  0  0  0  0  0  0  0  0  0
  -20.7590   10.7990   38.2540 O   0  0  0  0  0  0  0  0  0  0  0  0
  -20.2070    9.7920   37.3860 N   0  0  0  0  0  0  0  0  0  0  0  0
  -18.9980   10.2250   36.9040 C   0  0  1  0  0  0  0  0  0  0  0  0
  -18.2600    9.3640   35.9080 C   0  0  2  0  0  0  0  0  0  0  0  0
  -17.3970    9.7930   35.1670 O   0  0  0  0  0  0  0  0  0  0  0  0
  -18.6410    8.0920   35.7380 N   0  0  0  0  0  0  0  0  0  0  0  0
  -18.0400    7.2890   34.6990 C   0  0  2  0  0  0  0  0  0  0  0  0
  -18.9490    7.4370   33.4880 C   0  0  0  0  0  0  0  0  0  0  0  0
  -20.0660    7.9580   33.5620 O   0  0  0  0  0  0  0  0  0  0  0  0
  -17.9420    5.8750   35.1900 C   0  0  0  0  0  0  0  0  0  0  0  0
  -18.5210    7.0220   32.3070 N   0  0  0  0  0  0  0  0  0  0  0  0
  -19.4040    7.2140   31.1660 C   0  0  2  0  0  0  0  0  0  0  0  0
  -19.6500    5.9170   30.4440 C   0  0  0  0  0  0  0  0  0  0  0  0
  -18.6830    5.2160   30.0510 O   0  0  0  0  0  0  0  0  0  0  0  0
  -18.6570    8.2620   30.3040 C   0  0  1  0  0  0  0  0  0  0  0  0
  -18.9400    8.1470   28.7960 C   0  0  0  0  0  0  0  0  0  0  0  0
  -18.9730    9.6790   30.7810 C   0  0  0  0  0  0  0  0  0  0  0  0
  -20.9190    5.5660   30.2590 N   0  0  0  0  0  0  0  0  0  0  0  0
  -21.1770    4.3560   29.5210 C   0  0  2  0  0  0  0  0  0  0  0  0
  -20.8850    4.6760   28.0770 C   0  0  0  0  0  0  0  0  0  0  0  0
  -21.2760    5.7710   27.6440 O   0  0  0  0  0  0  0  0  0  0  0  0
  -22.6920    4.1740   29.5370 C   0  0  0  0  0  0  0  0  0  0  0  0
  -23.2620    3.0480   30.4290 C   0  0  1  0  0  0  0  0  0  0  0  0
  -22.2670    2.2780   31.3310 C   0  0  0  0  0  0  0  0  0  0  0  0
  -24.4870    3.4860   31.2450 C   0  0  0  0  0  0  0  0  0  0  0  0
  -19.9230    4.0370   25.9390 C   0  0  2  0  0  0  0  0  0  0  0  0
  -20.6650    2.9880   25.0760 C   0  0  0  0  0  0  0  0  0  0  0  0
  -22.1630    3.4000   24.9960 C   0  0  0  0  0  0  0  0  0  0  0  0
  -22.7570    3.2560   23.6250 C   0  0  0  0  0  0  0  0  0  0  0  0
  -18.4050    4.0820   25.7600 C   0  0  0  0  0  0  0  0  0  0  0  0
  -17.8840    5.4750   26.2700 C   0  0  2  0  0  0  0  0  0  0  0  0
  -18.4740    6.7690   25.6650 C   0  0  0  0  0  0  0  0  0  0  0  0
  -17.2110    7.6040   25.3330 C   0  0  0  0  0  0  0  0  0  0  0  0
  -16.0900    6.8420   25.8200 N   0  0  0  0  0  0  0  0  0  0  0  0
  -16.4030    5.5850   26.1230 C   0  0  0  0  0  0  0  0  0  0  0  0
  -15.6720    4.5510   26.2560 O   0  0  0  0  0  0  0  0  0  0  0  0
  -20.2110    3.7610   27.3500 N   0  0  0  0  0  0  0  0  0  0  0  0
  -22.0310    2.8450   22.7210 O   0  0  0  0  0  0  0  0  0  0  0  0
  -24.7090    4.9140   23.1340 C   0  0  0  0  0  0  0  0  0  0  0  0
  -24.1890    3.5730   23.3850 O   0  0  0  0  0  0  0  0  0  0  0  0
  -24.5750    5.2080   20.5370 C   0  0  0  0  0  0  0  0  0  0  0  0
  -25.1820    5.5070   19.2810 C   0  0  0  0  0  0  0  0  0  0  0  0
  -26.5660    5.8400   19.2050 C   0  0  0  0  0  0  0  0  0  0  0  0
  -27.3490    5.8790   20.3880 C   0  0  0  0  0  0  0  0  0  0  0  0
  -26.7380    5.5720   21.6270 C   0  0  0  0  0  0  0  0  0  0  0  0
  -25.3520    5.2150   21.7400 C   0  0  2  0  0  0  0  0  0  0  0  0
  2  1  1  0
  3  2  1  0
  4  2  1  0
  5  4  1  0
  6  5  1  0
  6  1  1  6
  7  6  1  0
  7  8  1  6
  9  7  1  0
 10  9  1  0
 11 10  1  0
 12 11  1  0
 10 13  1  1
 14 11  1  0
 15 14  1  1
 16 15  1  0
 17 16  1  0
 18 15  1  0
 18 19  1  6
 20 18  1  0
 21 16  1  0
 22 21  1  0
 23 22  1  0
 24 23  1  0
 22 25  1  6
 26 25  1  0
 26 27  1  1
 28 26  1  0
 29 30  1  6
 31 30  1  0
 32 31  1  0
 33 29  1  0
 34 33  1  6
 35 34  1  0
 36 35  1  0
 37 36  1  0
 38 34  1  0
 38 37  1  0
 39 38  1  0
 40 29  1  0
 40 23  1  0
 41 32  1  0
 43 42  1  0
 43 32  1  0
 45 44  1  0
 46 45  1  0
 47 46  1  0
 48 47  1  0
 49 44  1  0
 49 42  1  1
 49 48  1  0
M  END
