
     RDKit          3D

 31 35  0  0  0  0  0  0  0  0999 V2000
    8.6980    3.3810   25.7770 O   0  0  0  0  0  0  0  0  0  0  0  0
    7.9180    2.4290   25.0650 S   0  0  1  0  0  0  0  0  0  0  0  0
    6.8900    1.6900   25.7140 O   0  0  0  0  0  0  0  0  0  0  0  0
    7.2640    3.2390   23.8480 N   0  0  0  0  0  0  0  0  0  0  0  0
    7.7930    3.5510   22.4910 C   0  0  0  0  0  0  0  0  0  0  0  0
    6.6980    4.6160   22.3610 C   0  0  0  0  0  0  0  0  0  0  0  0
    6.0160    4.0100   23.5930 C   0  0  0  0  0  0  0  0  0  0  0  0
    8.9210    1.3700   24.4000 N   0  0  0  0  0  0  0  0  0  0  0  0
   10.3090    1.4100   24.8770 C   0  0  0  0  0  0  0  0  0  0  0  0
    8.4370    0.0050   24.1220 C   0  0  0  0  0  0  0  0  0  0  0  0
    9.1970   -0.5720   22.9250 C   0  0  2  0  0  0  0  0  0  0  0  0
   10.6990   -0.3570   23.0700 C   0  0  0  0  0  0  0  0  0  0  0  0
   11.2020    0.6150   23.9550 C   0  0  0  0  0  0  0  0  0  0  0  0
   12.5740    0.8640   23.9890 C   0  0  0  0  0  0  0  0  0  0  0  0
   13.4460    0.1730   23.1720 C   0  0  0  0  0  0  0  0  0  0  0  0
   11.5930   -1.0830   22.2760 C   0  0  0  0  0  0  0  0  0  0  0  0
   12.9480   -0.7990   22.3330 C   0  0  0  0  0  0  0  0  0  0  0  0
   14.0480   -1.6610   21.2900 Cl  0  0  0  0  0  0  0  0  0  0  0  0
    8.6920    0.0900   21.6380 C   0  0  0  0  0  0  0  0  0  0  0  0
    9.2690    1.0480   21.1290 O   0  0  0  0  0  0  0  0  0  0  0  0
    7.5220   -0.4100   21.1580 N   0  0  0  0  0  0  0  0  0  0  0  0
    6.7630    0.0810   20.0660 C   0  0  0  0  0  0  0  0  0  0  0  0
    5.5670    0.8280   20.3320 C   0  0  0  0  0  0  0  0  0  0  0  0
    5.0340    1.0280   21.6330 C   0  0  0  0  0  0  0  0  0  0  0  0
    3.8940    1.7600   21.8200 C   0  0  0  0  0  0  0  0  0  0  0  0
    3.2330    2.3340   20.7410 C   0  0  0  0  0  0  0  0  0  0  0  0
    3.7040    2.1670   19.4700 C   0  0  0  0  0  0  0  0  0  0  0  0
    4.8750    1.4050   19.2290 C   0  0  0  0  0  0  0  0  0  0  0  0
    5.4000    1.1870   17.9320 C   0  0  0  0  0  0  0  0  0  0  0  0
    6.5000    0.4880   17.6820 N   0  0  0  0  0  0  0  0  0  0  0  0
    7.1510   -0.0390   18.7300 C   0  0  0  0  0  0  0  0  0  0  0  0
  2  1  2  0
  3  2  2  0
  2  4  1  6
  5  4  1  0
  6  5  1  0
  7  6  1  0
  7  4  1  0
  8  2  1  0
  9  8  1  0
 10  8  1  0
 11 10  1  0
 12 11  1  0
 13 12  2  0
 13  9  1  0
 14 13  1  0
 15 14  2  0
 16 12  1  0
 17 16  2  0
 17 15  1  0
 18 17  1  0
 11 19  1  6
 20 19  2  0
 21 19  1  0
 22 21  1  0
 23 22  1  0
 24 23  2  0
 25 24  1  0
 26 25  2  0
 27 26  1  0
 28 27  2  0
 28 23  1  0
 29 28  1  0
 30 29  2  0
 31 30  1  0
 31 22  2  0
M  END
