
     RDKit          3D

 31 34  0  0  0  0  0  0  0  0999 V2000
    3.7380    2.8510   25.5460 O   0  0  0  0  0  0  0  0  0  0  0  0
    4.4980    2.1400   24.5650 S   0  0  1  0  0  0  0  0  0  0  0  0
    5.9030    2.3930   24.4610 O   0  0  0  0  0  0  0  0  0  0  0  0
    4.2610    0.4220   24.8230 C   0  0  0  0  0  0  0  0  0  0  0  0
    3.8300    2.4930   23.1210 N   0  0  0  0  0  0  0  0  0  0  0  0
    4.3090    2.1260   21.8230 C   0  0  0  0  0  0  0  0  0  0  0  0
    3.5880    2.5480   20.7060 C   0  0  0  0  0  0  0  0  0  0  0  0
    3.9680    2.1980   19.4460 C   0  0  0  0  0  0  0  0  0  0  0  0
    5.4360    1.3480   21.6530 C   0  0  0  0  0  0  0  0  0  0  0  0
    5.8690    0.9610   20.3580 C   0  0  0  0  0  0  0  0  0  0  0  0
    5.1130    1.3940   19.2330 C   0  0  0  0  0  0  0  0  0  0  0  0
    5.5590    1.0080   17.9460 C   0  0  0  0  0  0  0  0  0  0  0  0
    6.6370    0.2720   17.7230 N   0  0  0  0  0  0  0  0  0  0  0  0
    7.3420   -0.1350   18.7890 C   0  0  0  0  0  0  0  0  0  0  0  0
    7.0350    0.1630   20.1170 C   0  0  0  0  0  0  0  0  0  0  0  0
    7.8140   -0.2520   21.2220 N   0  0  0  0  0  0  0  0  0  0  0  0
    8.9110    0.3490   21.7300 C   0  0  0  0  0  0  0  0  0  0  0  0
    9.4030    1.3510   21.2360 O   0  0  0  0  0  0  0  0  0  0  0  0
    9.4680   -0.2710   23.0710 C   0  0  1  0  0  0  0  0  0  0  0  0
    9.0570   -1.6430   22.9900 O   0  0  0  0  0  0  0  0  0  0  0  0
    9.5040   -2.5250   24.0270 C   0  0  0  0  0  0  0  0  0  0  0  0
   10.9750   -0.1300   23.1060 C   0  0  0  0  0  0  0  0  0  0  0  0
   11.7790   -0.7520   22.1520 C   0  0  0  0  0  0  0  0  0  0  0  0
   13.1520   -0.5850   22.2100 C   0  0  0  0  0  0  0  0  0  0  0  0
   14.1410   -1.3020   20.9700 Cl  0  0  0  0  0  0  0  0  0  0  0  0
   13.7540    0.1640   23.1970 C   0  0  0  0  0  0  0  0  0  0  0  0
   12.9700    0.7750   24.1580 C   0  0  0  0  0  0  0  0  0  0  0  0
   11.5930    0.6350   24.0990 C   0  0  0  0  0  0  0  0  0  0  0  0
   10.8850    1.3300   25.0480 O   0  0  0  0  0  0  0  0  0  0  0  0
    9.6410    0.7100   25.4150 C   0  0  0  0  0  0  0  0  0  0  0  0
    8.7460    0.4730   24.2130 C   0  0  0  0  0  0  0  0  0  0  0  0
  2  1  2  0
  3  2  2  0
  2  4  1  1
  5  2  1  0
  6  5  1  0
  7  6  2  0
  8  7  1  0
  9  6  1  0
 10  9  2  0
 11  8  2  0
 11 10  1  0
 12 11  1  0
 13 12  2  0
 14 13  1  0
 15 14  2  0
 15 10  1  0
 16 15  1  0
 17 16  1  0
 18 17  2  0
 19 17  1  0
 19 20  1  6
 21 20  1  0
 22 19  1  0
 23 22  2  0
 24 23  1  0
 25 24  1  0
 26 24  2  0
 27 26  1  0
 28 27  2  0
 28 22  1  0
 29 28  1  0
 30 29  1  0
 31 30  1  0
 31 19  1  0
M  END
