
     RDKit          3D

 49 51  0  0  0  0  0  0  0  0999 V2000
  -17.7860   11.6440   36.8880 C   0  0  0  0  0  0  0  0  0  0  0  0
  -18.5920   12.1080   37.9090 C   0  0  0  0  0  0  0  0  0  0  0  0
  -18.4060   13.4210   38.6280 C   0  0  0  0  0  0  0  0  0  0  0  0
  -19.6020   11.2270   38.1700 O   0  0  0  0  0  0  0  0  0  0  0  0
  -19.4530   10.0950   37.2980 N   0  0  0  0  0  0  0  0  0  0  0  0
  -18.3390   10.3890   36.5470 C   0  0  0  0  0  0  0  0  0  0  0  0
  -17.8580    9.4790   35.4840 C   0  0  0  0  0  0  0  0  0  0  0  0
  -17.3310    9.9440   34.4890 O   0  0  0  0  0  0  0  0  0  0  0  0
  -18.0800    8.1880   35.6950 N   0  0  0  0  0  0  0  0  0  0  0  0
  -17.7370    7.1990   34.7050 C   0  0  2  0  0  0  0  0  0  0  0  0
  -18.7630    7.3670   33.6160 C   0  0  0  0  0  0  0  0  0  0  0  0
  -19.8530    7.8060   33.9060 O   0  0  0  0  0  0  0  0  0  0  0  0
  -17.8460    5.8110   35.2840 C   0  0  0  0  0  0  0  0  0  0  0  0
  -18.4060    7.0730   32.3610 N   0  0  0  0  0  0  0  0  0  0  0  0
  -19.2780    7.1830   31.2020 C   0  0  2  0  0  0  0  0  0  0  0  0
  -19.3980    5.8430   30.5410 C   0  0  0  0  0  0  0  0  0  0  0  0
  -18.4090    5.1290   30.2810 O   0  0  0  0  0  0  0  0  0  0  0  0
  -18.5970    8.2010   30.2800 C   0  0  1  0  0  0  0  0  0  0  0  0
  -19.1680    8.2480   28.8440 C   0  0  0  0  0  0  0  0  0  0  0  0
  -18.5480    9.5890   30.9300 C   0  0  0  0  0  0  0  0  0  0  0  0
  -20.6590    5.5270   30.2930 N   0  0  0  0  0  0  0  0  0  0  0  0
  -21.0850    4.3120   29.6140 C   0  0  2  0  0  0  0  0  0  0  0  0
  -20.7820    4.5490   28.1690 C   0  0  0  0  0  0  0  0  0  0  0  0
  -21.2280    5.5710   27.6450 O   0  0  0  0  0  0  0  0  0  0  0  0
  -22.6080    4.3050   29.7730 C   0  0  0  0  0  0  0  0  0  0  0  0
  -23.2060    3.0470   30.4160 C   0  0  1  0  0  0  0  0  0  0  0  0
  -22.2070    2.1950   31.2000 C   0  0  0  0  0  0  0  0  0  0  0  0
  -24.3660    3.4360   31.3100 C   0  0  0  0  0  0  0  0  0  0  0  0
  -19.8680    4.1000   26.0560 C   0  0  2  0  0  0  0  0  0  0  0  0
  -20.6680    3.1770   25.1420 C   0  0  0  0  0  0  0  0  0  0  0  0
  -22.1680    3.3900   25.2590 C   0  0  0  0  0  0  0  0  0  0  0  0
  -22.6540    3.9640   23.9640 C   0  0  0  0  0  0  0  0  0  0  0  0
  -18.3620    4.1030   25.7230 C   0  0  0  0  0  0  0  0  0  0  0  0
  -17.7630    5.4810   26.1720 C   0  0  2  0  0  0  0  0  0  0  0  0
  -18.2300    6.7230   25.3150 C   0  0  0  0  0  0  0  0  0  0  0  0
  -17.0050    7.7680   25.6590 C   0  0  0  0  0  0  0  0  0  0  0  0
  -15.9130    6.6890   25.5530 N   0  0  0  0  0  0  0  0  0  0  0  0
  -16.2610    5.4810   26.0140 C   0  0  0  0  0  0  0  0  0  0  0  0
  -15.5510    4.4920   26.2970 O   0  0  0  0  0  0  0  0  0  0  0  0
  -20.0530    3.6920   27.4600 N   0  0  0  0  0  0  0  0  0  0  0  0
  -22.9580    3.1910   23.0620 O   0  0  0  0  0  0  0  0  0  0  0  0
  -23.8340    6.2080   24.3130 C   0  0  0  0  0  0  0  0  0  0  0  0
  -22.7390    5.4230   23.7830 O   0  0  0  0  0  0  0  0  0  0  0  0
  -22.7030    7.7110   26.0810 C   0  0  0  0  0  0  0  0  0  0  0  0
  -22.3290    8.9660   26.5880 C   0  0  0  0  0  0  0  0  0  0  0  0
  -22.6510   10.1310   25.8790 C   0  0  0  0  0  0  0  0  0  0  0  0
  -23.3570   10.0360   24.6670 C   0  0  0  0  0  0  0  0  0  0  0  0
  -23.7350    8.7810   24.1560 C   0  0  0  0  0  0  0  0  0  0  0  0
  -23.4070    7.5920   24.8560 C   0  0  0  0  0  0  0  0  0  0  0  0
  2  1  1  0
  3  2  1  0
  4  2  1  0
  5  4  1  0
  6  5  1  0
  6  1  1  0
  7  6  1  0
  8  7  1  0
  9  7  1  0
 10  9  1  0
 11 10  1  0
 12 11  1  0
 10 13  1  1
 14 11  1  0
 15 14  1  1
 16 15  1  0
 17 16  1  0
 18 15  1  0
 18 19  1  6
 20 18  1  0
 21 16  1  0
 22 21  1  0
 23 22  1  0
 24 23  1  0
 22 25  1  6
 26 25  1  0
 26 27  1  1
 28 26  1  0
 29 30  1  6
 31 30  1  0
 32 31  1  0
 33 29  1  0
 34 33  1  6
 35 34  1  0
 36 35  1  0
 37 36  1  0
 38 34  1  0
 38 37  1  0
 39 38  1  0
 40 29  1  0
 40 23  1  0
 41 32  1  0
 43 32  1  0
 43 42  1  0
 45 44  1  0
 46 45  1  0
 47 46  1  0
 48 47  1  0
 49 48  1  0
 49 44  1  0
 49 42  1  0
M  END
