
     RDKit          3D

 36 35  0  0  0  0  0  0  0  0999 V2000
  -18.3540   10.5050   37.5430 N   0  0  0  0  0  0  0  0  0  0  0  0
  -19.4650   10.1550   36.6650 C   0  0  2  0  0  0  0  0  0  0  0  0
  -18.9870    9.3540   35.4550 C   0  0  0  0  0  0  0  0  0  0  0  0
  -18.5850    9.9310   34.4410 O   0  0  0  0  0  0  0  0  0  0  0  0
  -20.2040   11.4160   36.2050 C   0  0  0  0  0  0  0  0  0  0  0  0
  -19.3450   12.2790   35.4780 O   0  0  0  0  0  0  0  0  0  0  0  0
  -19.0360    8.0260   35.5720 N   0  0  0  0  0  0  0  0  0  0  0  0
  -18.6150    7.1540   34.4830 C   0  0  2  0  0  0  0  0  0  0  0  0
  -19.5090    7.3520   33.2640 C   0  0  0  0  0  0  0  0  0  0  0  0
  -20.6630    7.7700   33.3740 O   0  0  0  0  0  0  0  0  0  0  0  0
  -18.6470    5.6910   34.9270 C   0  0  0  0  0  0  0  0  0  0  0  0
  -18.9630    7.0550   32.0870 N   0  0  0  0  0  0  0  0  0  0  0  0
  -19.6580    7.2450   30.8190 C   0  0  2  0  0  0  0  0  0  0  0  0
  -19.9510    5.8790   30.2180 C   0  0  0  0  0  0  0  0  0  0  0  0
  -19.0520    5.0360   30.1150 O   0  0  0  0  0  0  0  0  0  0  0  0
  -18.8310    8.1010   29.8460 C   0  0  1  0  0  0  0  0  0  0  0  0
  -19.6500    8.4430   28.6090 C   0  0  0  0  0  0  0  0  0  0  0  0
  -18.3310    9.3580   30.5350 C   0  0  0  0  0  0  0  0  0  0  0  0
  -21.1990    5.6640   29.8140 N   0  0  0  0  0  0  0  0  0  0  0  0
  -21.6010    4.4180   29.1700 C   0  0  2  0  0  0  0  0  0  0  0  0
  -21.5150    4.6120   27.6570 C   0  0  0  0  0  0  0  0  0  0  0  0
  -22.3020    5.3670   27.0740 O   0  0  0  0  0  0  0  0  0  0  0  0
  -23.0010    4.0150   29.6260 C   0  0  0  0  0  0  0  0  0  0  0  0
  -22.9190    3.0880   30.8420 C   0  0  1  0  0  0  0  0  0  0  0  0
  -24.2750    2.8550   31.4960 C   0  0  0  0  0  0  0  0  0  0  0  0
  -22.2860    1.7690   30.4430 C   0  0  0  0  0  0  0  0  0  0  0  0
  -20.5570    3.9330   27.0260 N   0  0  0  0  0  0  0  0  0  0  0  0
  -20.1580    4.2300   25.6500 C   0  0  2  0  0  0  0  0  0  0  0  0
  -20.8440    3.3690   24.5900 C   0  0  0  0  0  0  0  0  0  0  0  0
  -22.0520    3.4610   24.3710 O   0  0  0  0  0  0  0  0  0  0  0  0
  -18.6380    4.0830   25.5170 C   0  0  0  0  0  0  0  0  0  0  0  0
  -17.8650    4.6690   26.6810 C   0  0  0  0  0  0  0  0  0  0  0  0
  -16.3940    4.8240   26.3710 C   0  0  0  0  0  0  0  0  0  0  0  0
  -15.6330    3.8590   26.4130 O   0  0  0  0  0  0  0  0  0  0  0  0
  -15.9890    6.0400   26.0200 N   0  0  0  0  0  0  0  0  0  0  0  0
  -20.2000    2.5580   23.9240 O   0  0  0  0  0  0  0  0  0  0  0  0
  2  1  1  1
  3  2  1  0
  4  3  1  0
  5  2  1  0
  6  5  1  0
  7  3  1  0
  8  7  1  0
  9  8  1  0
 10  9  1  0
  8 11  1  1
 12  9  1  0
 13 12  1  1
 14 13  1  0
 15 14  1  0
 16 13  1  0
 16 17  1  6
 18 16  1  0
 19 14  1  0
 20 19  1  0
 21 20  1  0
 22 21  1  0
 20 23  1  6
 24 23  1  0
 24 25  1  6
 26 24  1  0
 27 21  1  0
 28 27  1  0
 29 28  1  0
 30 29  1  0
 28 31  1  1
 32 31  1  0
 33 32  1  0
 34 33  1  0
 35 33  1  0
 36 29  1  0
M  END
