
     RDKit          3D

 33 37  0  0  0  0  0  0  0  0999 V2000
   14.0710   -1.5460   21.2690 Cl  0  0  0  0  0  0  0  0  0  0  0  0
   12.9280   -0.8300   22.3710 C   0  0  0  0  0  0  0  0  0  0  0  0
   11.5970   -1.1860   22.2820 C   0  0  0  0  0  0  0  0  0  0  0  0
   13.3630    0.1130   23.2720 C   0  0  0  0  0  0  0  0  0  0  0  0
   12.4420    0.7110   24.1100 C   0  0  0  0  0  0  0  0  0  0  0  0
   11.0850    0.4000   24.0330 C   0  0  0  0  0  0  0  0  0  0  0  0
   10.1320    1.1510   24.9440 C   0  0  0  0  0  0  0  0  0  0  0  0
    8.7190    0.8120   24.7270 N   0  0  0  0  0  0  0  0  0  0  0  0
    7.4560    1.7140   25.1140 S   0  0  2  0  0  0  0  0  0  0  0  0
    7.6260    2.1470   26.4560 O   0  0  0  0  0  0  0  0  0  0  0  0
    6.2900    1.0000   24.7200 O   0  0  0  0  0  0  0  0  0  0  0  0
    7.6100    3.0040   24.1870 N   0  0  0  0  0  0  0  0  0  0  0  0
    7.8000    4.4500   24.4820 C   0  0  0  0  0  0  0  0  0  0  0  0
    7.5640    3.2660   22.7230 C   0  0  0  0  0  0  0  0  0  0  0  0
    7.2430    4.7260   23.0760 C   0  0  1  0  0  0  0  0  0  0  0  0
    5.8220    4.8310   23.0390 O   0  0  0  0  0  0  0  0  0  0  0  0
    5.3280    5.4310   21.8560 C   0  0  0  0  0  0  0  0  0  0  0  0
   10.6570   -0.5490   23.0940 C   0  0  0  0  0  0  0  0  0  0  0  0
    9.1790   -0.8370   22.9290 C   0  0  1  0  0  0  0  0  0  0  0  0
    8.4400   -0.5500   24.2320 C   0  0  0  0  0  0  0  0  0  0  0  0
    8.6390   -0.0470   21.7330 C   0  0  0  0  0  0  0  0  0  0  0  0
    9.2600    0.8930   21.2380 O   0  0  0  0  0  0  0  0  0  0  0  0
    7.4550   -0.4950   21.2460 N   0  0  0  0  0  0  0  0  0  0  0  0
    6.7320   -0.0310   20.1270 C   0  0  0  0  0  0  0  0  0  0  0  0
    5.5500    0.7470   20.3390 C   0  0  0  0  0  0  0  0  0  0  0  0
    5.0010    1.0170   21.6190 C   0  0  0  0  0  0  0  0  0  0  0  0
    3.8920    1.8020   21.7570 C   0  0  0  0  0  0  0  0  0  0  0  0
    3.2710    2.3540   20.6450 C   0  0  0  0  0  0  0  0  0  0  0  0
    3.7460    2.1060   19.3890 C   0  0  0  0  0  0  0  0  0  0  0  0
    4.8920    1.2930   19.2000 C   0  0  0  0  0  0  0  0  0  0  0  0
    5.4290    0.9990   17.9220 C   0  0  0  0  0  0  0  0  0  0  0  0
    6.5110    0.2570   17.7240 N   0  0  0  0  0  0  0  0  0  0  0  0
    7.1350   -0.2310   18.8050 C   0  0  0  0  0  0  0  0  0  0  0  0
  2  1  1  0
  3  2  2  0
  4  2  1  0
  5  4  2  0
  6  5  1  0
  7  6  1  0
  8  7  1  0
  9  8  1  6
 10  9  2  0
 11  9  2  0
 12  9  1  0
 13 12  1  0
 14 12  1  0
 15 14  1  0
 15 13  1  0
 15 16  1  1
 17 16  1  0
 18  6  2  0
 18  3  1  0
 19 18  1  0
 20 19  1  0
 20  8  1  0
 19 21  1  6
 22 21  2  0
 23 21  1  0
 24 23  1  0
 25 24  1  0
 26 25  2  0
 27 26  1  0
 28 27  2  0
 29 28  1  0
 30 29  2  0
 30 25  1  0
 31 30  1  0
 32 31  2  0
 33 32  1  0
 33 24  2  0
M  END
