
     RDKit          3D

 33 37  0  0  0  0  0  0  0  0999 V2000
   14.1020   -1.5330   21.2780 Cl  0  0  0  0  0  0  0  0  0  0  0  0
   12.9010   -0.7970   22.3010 C   0  0  0  0  0  0  0  0  0  0  0  0
   11.5780   -1.1800   22.1700 C   0  0  0  0  0  0  0  0  0  0  0  0
   13.2850    0.1710   23.1960 C   0  0  0  0  0  0  0  0  0  0  0  0
   12.3270    0.7610   23.9960 C   0  0  0  0  0  0  0  0  0  0  0  0
   10.9800    0.4140   23.8870 C   0  0  0  0  0  0  0  0  0  0  0  0
   10.0040    1.1100   24.8100 C   0  0  0  0  0  0  0  0  0  0  0  0
    8.6040    0.7280   24.5860 N   0  0  0  0  0  0  0  0  0  0  0  0
    7.3380    1.5960   25.0310 S   0  0  2  0  0  0  0  0  0  0  0  0
    7.3710    1.7270   26.4460 O   0  0  0  0  0  0  0  0  0  0  0  0
    6.1950    1.0620   24.3730 O   0  0  0  0  0  0  0  0  0  0  0  0
    7.7380    3.0160   24.4110 N   0  0  0  0  0  0  0  0  0  0  0  0
    7.8290    4.2390   25.2380 C   0  0  0  0  0  0  0  0  0  0  0  0
    7.1500    5.3230   24.4030 C   0  0  0  0  0  0  0  0  0  0  0  0
    7.4000    3.4020   23.0240 C   0  0  0  0  0  0  0  0  0  0  0  0
    6.4460    4.5650   23.2540 C   0  0  2  0  0  0  0  0  0  0  0  0
    6.2120    5.4140   22.0100 C   0  0  0  0  0  0  0  0  0  0  0  0
   10.6010   -0.5560   22.9470 C   0  0  0  0  0  0  0  0  0  0  0  0
    9.1310   -0.8750   22.7450 C   0  0  1  0  0  0  0  0  0  0  0  0
    8.3560   -0.6170   24.0350 C   0  0  0  0  0  0  0  0  0  0  0  0
    8.5620   -0.0620   21.5800 C   0  0  0  0  0  0  0  0  0  0  0  0
    9.0850    0.9840   21.1930 O   0  0  0  0  0  0  0  0  0  0  0  0
    7.4410   -0.5820   21.0190 N   0  0  0  0  0  0  0  0  0  0  0  0
    6.6910   -0.0510   19.9430 C   0  0  0  0  0  0  0  0  0  0  0  0
    5.5620    0.7790   20.2340 C   0  0  0  0  0  0  0  0  0  0  0  0
    5.0650    1.0070   21.5440 C   0  0  0  0  0  0  0  0  0  0  0  0
    3.9730    1.8000   21.7540 C   0  0  0  0  0  0  0  0  0  0  0  0
    3.3290    2.4160   20.6870 C   0  0  0  0  0  0  0  0  0  0  0  0
    3.7690    2.2320   19.4070 C   0  0  0  0  0  0  0  0  0  0  0  0
    4.8860    1.4000   19.1430 C   0  0  0  0  0  0  0  0  0  0  0  0
    5.3600    1.1320   17.8340 C   0  0  0  0  0  0  0  0  0  0  0  0
    6.3980    0.3520   17.5630 N   0  0  0  0  0  0  0  0  0  0  0  0
    7.0360   -0.2130   18.5990 C   0  0  0  0  0  0  0  0  0  0  0  0
  2  1  1  0
  3  2  2  0
  4  2  1  0
  5  4  2  0
  6  5  1  0
  7  6  1  0
  8  7  1  0
  9  8  1  1
 10  9  2  0
 11  9  2  0
 12  9  1  0
 13 12  1  0
 14 13  1  0
 15 12  1  0
 16 15  1  0
 16 14  1  0
 16 17  1  6
 18  6  2  0
 18  3  1  0
 19 18  1  0
 20 19  1  0
 20  8  1  0
 19 21  1  6
 22 21  2  0
 23 21  1  0
 24 23  1  0
 25 24  1  0
 26 25  2  0
 27 26  1  0
 28 27  2  0
 29 28  1  0
 30 29  2  0
 30 25  1  0
 31 30  1  0
 32 31  2  0
 33 32  1  0
 33 24  2  0
M  END
