
     RDKit          3D

 33 37  0  0  0  0  0  0  0  0999 V2000
    8.8590    6.8480   22.2920 N   0  0  0  0  0  0  0  0  0  0  0  0
    8.0800    6.0510   22.5350 C   0  0  0  0  0  0  0  0  0  0  0  0
    7.1050    5.0030   22.8780 C   0  0  2  0  0  0  0  0  0  0  0  0
    7.0510    4.6820   24.3940 C   0  0  0  0  0  0  0  0  0  0  0  0
    7.5310    3.5290   22.6600 C   0  0  0  0  0  0  0  0  0  0  0  0
    7.6850    3.3610   24.1310 N   0  0  0  0  0  0  0  0  0  0  0  0
    7.6810    2.0430   25.0430 S   0  0  1  0  0  0  0  0  0  0  0  0
    8.0820    2.4510   26.3450 O   0  0  0  0  0  0  0  0  0  0  0  0
    6.4540    1.3510   24.8480 O   0  0  0  0  0  0  0  0  0  0  0  0
    8.8490    1.1140   24.4720 N   0  0  0  0  0  0  0  0  0  0  0  0
   10.2440    1.3260   24.8770 C   0  0  0  0  0  0  0  0  0  0  0  0
    8.5170   -0.2990   24.2130 C   0  0  0  0  0  0  0  0  0  0  0  0
    9.2690   -0.7390   22.9570 C   0  0  2  0  0  0  0  0  0  0  0  0
   10.7510   -0.4200   23.0780 C   0  0  0  0  0  0  0  0  0  0  0  0
   11.1840    0.5950   23.9470 C   0  0  0  0  0  0  0  0  0  0  0  0
   12.5320    0.9520   23.9590 C   0  0  0  0  0  0  0  0  0  0  0  0
   13.4460    0.3200   23.1390 C   0  0  0  0  0  0  0  0  0  0  0  0
   11.6870   -1.0840   22.2810 C   0  0  0  0  0  0  0  0  0  0  0  0
   13.0170   -0.6980   22.3230 C   0  0  0  0  0  0  0  0  0  0  0  0
   14.1740   -1.5220   21.3150 Cl  0  0  0  0  0  0  0  0  0  0  0  0
    8.7010   -0.0090   21.7350 C   0  0  0  0  0  0  0  0  0  0  0  0
    9.2660    0.9640   21.2400 O   0  0  0  0  0  0  0  0  0  0  0  0
    7.5250   -0.5110   21.2580 N   0  0  0  0  0  0  0  0  0  0  0  0
    6.7650   -0.0500   20.1480 C   0  0  0  0  0  0  0  0  0  0  0  0
    5.6080    0.7700   20.3750 C   0  0  0  0  0  0  0  0  0  0  0  0
    5.0700    1.0420   21.6600 C   0  0  0  0  0  0  0  0  0  0  0  0
    3.9570    1.8250   21.8080 C   0  0  0  0  0  0  0  0  0  0  0  0
    3.3290    2.3800   20.6990 C   0  0  0  0  0  0  0  0  0  0  0  0
    3.8080    2.1500   19.4420 C   0  0  0  0  0  0  0  0  0  0  0  0
    4.9500    1.3320   19.2420 C   0  0  0  0  0  0  0  0  0  0  0  0
    5.4620    1.0220   17.9580 C   0  0  0  0  0  0  0  0  0  0  0  0
    6.5140    0.2420   17.7450 N   0  0  0  0  0  0  0  0  0  0  0  0
    7.1370   -0.2660   18.8200 C   0  0  0  0  0  0  0  0  0  0  0  0
  2  1  3  0
  3  2  1  1
  4  3  1  0
  5  3  1  0
  6  5  1  0
  6  4  1  0
  7  6  1  6
  8  7  2  0
  9  7  2  0
 10  7  1  0
 11 10  1  0
 12 10  1  0
 13 12  1  0
 14 13  1  0
 15 14  2  0
 15 11  1  0
 16 15  1  0
 17 16  2  0
 18 14  1  0
 19 18  2  0
 19 17  1  0
 20 19  1  0
 13 21  1  6
 22 21  2  0
 23 21  1  0
 24 23  1  0
 25 24  1  0
 26 25  2  0
 27 26  1  0
 28 27  2  0
 29 28  1  0
 30 29  2  0
 30 25  1  0
 31 30  1  0
 32 31  2  0
 33 32  1  0
 33 24  2  0
M  END
