
     RDKit          3D

 49 51  0  0  0  0  0  0  0  0999 V2000
  -20.4140    9.8890   37.4640 C   0  0  0  0  0  0  0  0  0  0  0  0
  -20.7540   11.0020   38.2520 C   0  0  0  0  0  0  0  0  0  0  0  0
  -22.0390   11.1850   39.0640 C   0  0  0  0  0  0  0  0  0  0  0  0
  -19.7580   11.9110   38.2050 O   0  0  0  0  0  0  0  0  0  0  0  0
  -18.7200   11.3410   37.3440 N   0  0  0  0  0  0  0  0  0  0  0  0
  -19.1160   10.0910   36.9210 C   0  0  2  0  0  0  0  0  0  0  0  0
  -18.3800    9.1820   35.9340 C   0  0  2  0  0  0  0  0  0  0  0  0
  -17.5080    9.5970   35.1900 O   0  0  0  0  0  0  0  0  0  0  0  0
  -18.6770    7.9050   35.7350 N   0  0  0  0  0  0  0  0  0  0  0  0
  -18.0170    7.1620   34.6830 C   0  0  2  0  0  0  0  0  0  0  0  0
  -18.9340    7.3940   33.4710 C   0  0  0  0  0  0  0  0  0  0  0  0
  -20.0530    7.9850   33.5440 O   0  0  0  0  0  0  0  0  0  0  0  0
  -17.9080    5.6930   35.0840 C   0  0  0  0  0  0  0  0  0  0  0  0
  -18.5420    6.9990   32.2860 N   0  0  0  0  0  0  0  0  0  0  0  0
  -19.4220    7.2310   31.1370 C   0  0  2  0  0  0  0  0  0  0  0  0
  -19.5860    5.9080   30.3940 C   0  0  1  0  0  0  0  0  0  0  0  0
  -18.5820    5.2470   30.1290 O   0  0  0  0  0  0  0  0  0  0  0  0
  -18.6590    8.3130   30.3380 C   0  0  1  0  0  0  0  0  0  0  0  0
  -19.0830    8.3380   28.8770 C   0  0  0  0  0  0  0  0  0  0  0  0
  -18.9720    9.6890   30.9150 C   0  0  0  0  0  0  0  0  0  0  0  0
  -20.8270    5.4940   30.1220 N   0  0  0  0  0  0  0  0  0  0  0  0
  -21.1360    4.2630   29.4240 C   0  0  2  0  0  0  0  0  0  0  0  0
  -20.8040    4.4660   27.9730 C   0  0  1  0  0  0  0  0  0  0  0  0
  -21.1550    5.5360   27.4640 O   0  0  0  0  0  0  0  0  0  0  0  0
  -22.6560    4.1780   29.4860 C   0  0  0  0  0  0  0  0  0  0  0  0
  -23.2440    2.9920   30.2580 C   0  0  1  0  0  0  0  0  0  0  0  0
  -22.3180    2.2100   31.1950 C   0  0  0  0  0  0  0  0  0  0  0  0
  -24.4590    3.3560   31.0590 C   0  0  0  0  0  0  0  0  0  0  0  0
  -19.8640    3.9250   25.8610 C   0  0  2  0  0  0  0  0  0  0  0  0
  -20.6900    3.0470   24.8990 C   0  0  0  0  0  0  0  0  0  0  0  0
  -22.1950    3.3790   25.0200 C   0  0  0  0  0  0  0  0  0  0  0  0
  -22.8390    3.2800   23.6670 C   0  0  0  0  0  0  0  0  0  0  0  0
  -18.3690    3.7600   25.6100 C   0  0  0  0  0  0  0  0  0  0  0  0
  -17.6610    4.9940   26.3120 C   0  0  2  0  0  0  0  0  0  0  0  0
  -18.0330    6.3600   25.6760 C   0  0  0  0  0  0  0  0  0  0  0  0
  -16.7780    7.4520   25.7160 C   0  0  0  0  0  0  0  0  0  0  0  0
  -15.7260    6.2110   25.8620 N   0  0  0  0  0  0  0  0  0  0  0  0
  -16.1630    4.9190   26.1170 C   0  0  1  0  0  0  0  0  0  0  0  0
  -15.4930    3.8860   26.2350 O   0  0  0  0  0  0  0  0  0  0  0  0
  -20.1030    3.5610   27.2700 N   0  0  0  0  0  0  0  0  0  0  0  0
  -22.1790    2.7400   22.7560 O   0  0  0  0  0  0  0  0  0  0  0  0
  -24.5810    5.1200   23.0360 C   0  0  0  0  0  0  0  0  0  0  0  0
  -24.2290    3.7690   23.4450 O   0  0  0  0  0  0  0  0  0  0  0  0
  -26.7050    5.6370   21.6270 C   0  0  0  0  0  0  0  0  0  0  0  0
  -27.3860    5.8540   20.4070 C   0  0  0  0  0  0  0  0  0  0  0  0
  -26.6710    5.7680   19.1870 C   0  0  0  0  0  0  0  0  0  0  0  0
  -25.2800    5.4750   19.1990 C   0  0  0  0  0  0  0  0  0  0  0  0
  -24.6040    5.2670   20.4330 C   0  0  0  0  0  0  0  0  0  0  0  0
  -25.3100    5.3220   21.6750 C   0  0  1  0  0  0  0  0  0  0  0  0
  2  1  1  0
  3  2  1  0
  4  2  1  0
  5  4  1  0
  6  1  1  6
  6  5  1  0
  7  6  1  0
  7  8  1  6
  9  7  1  0
 10  9  1  0
 11 10  1  0
 12 11  1  0
 10 13  1  1
 14 11  1  0
 15 14  1  1
 16 15  1  0
 16 17  1  1
 18 15  1  0
 18 19  1  6
 20 18  1  0
 21 16  1  0
 22 21  1  0
 23 22  1  0
 23 24  1  1
 22 25  1  6
 26 25  1  0
 26 27  1  1
 28 26  1  0
 29 30  1  6
 31 30  1  0
 32 31  1  0
 33 29  1  0
 34 33  1  6
 35 34  1  0
 36 35  1  0
 37 36  1  0
 38 34  1  0
 38 37  1  0
 38 39  1  1
 40 29  1  0
 40 23  1  0
 41 32  1  0
 43 42  1  0
 43 32  1  0
 45 44  1  0
 46 45  1  0
 47 46  1  0
 48 47  1  0
 49 48  1  0
 49 42  1  1
 49 44  1  0
M  END
